Flow Title=transectFlow
Program Version=6.31
Use Restart= 0 
Boundary Location=                ,                ,        ,        ,                ,P01             ,                ,0+025                           ,                                
Interval=1HOUR
Flow Hydrograph= 0 
Stage Hydrograph TW Check=0
DSS File=/IRREGULAR/TIMESERIES/FLOW/01Jan1990/IR-Decade/0+025/
DSS Path=.\DSS Files\example-dss.dss
Use DSS=True
Use Fixed Start Time=False
Fixed Start Date/Time=,
Is Critical Boundary=False
Critical Boundary Flow=
Boundary Location=                ,                ,        ,        ,                ,P01             ,                ,0+225                           ,                                
Interval=1HOUR
Flow Hydrograph= 0 
Stage Hydrograph TW Check=0
DSS File=/IRREGULAR/TIMESERIES/FLOW/01Jan1990/IR-Decade/0+225/
DSS Path=.\DSS Files\example-dss.dss
Use DSS=True
Use Fixed Start Time=False
Fixed Start Date/Time=,
Is Critical Boundary=False
Critical Boundary Flow=
Boundary Location=                ,                ,        ,        ,                ,P01             ,                ,0+525                           ,                                
Interval=1HOUR
Flow Hydrograph= 0 
Stage Hydrograph TW Check=0
DSS File=/IRREGULAR/TIMESERIES/FLOW/01Jan1990/IR-Decade/0+525/
DSS Path=.\DSS Files\example-dss.dss
Use DSS=True
Use Fixed Start Time=False
Fixed Start Date/Time=,
Is Critical Boundary=False
Critical Boundary Flow=
Boundary Location=                ,                ,        ,        ,                ,P01             ,                ,ER01A001                        ,                                
Interval=1HOUR
Flow Hydrograph= 0 
Stage Hydrograph TW Check=0
DSS File=/IRREGULAR/TIMESERIES/FLOW/01Jan1990/IR-Decade/ER01A001/
DSS Path=.\DSS Files\example-dss.dss
Use DSS=True
Use Fixed Start Time=False
Fixed Start Date/Time=,
Is Critical Boundary=False
Critical Boundary Flow=
Boundary Location=                ,                ,        ,        ,                ,P01             ,                ,ER01A002                        ,                                
Interval=1HOUR
Flow Hydrograph= 0 
Stage Hydrograph TW Check=0
DSS File=/IRREGULAR/TIMESERIES/FLOW/01Jan1990/IR-Decade/ER01A002/
DSS Path=.\DSS Files\example-dss.dss
Use DSS=True
Use Fixed Start Time=False
Fixed Start Date/Time=,
Is Critical Boundary=False
Critical Boundary Flow=
Boundary Location=                ,                ,        ,        ,                ,P01             ,                ,ER02A001                        ,                                
Interval=1HOUR
Flow Hydrograph= 0 
Stage Hydrograph TW Check=0
DSS File=/IRREGULAR/TIMESERIES/FLOW/01Jan1990/IR-Decade/ER02A001/
DSS Path=.\DSS Files\example-dss.dss
Use DSS=True
Use Fixed Start Time=False
Fixed Start Date/Time=,
Is Critical Boundary=False
Critical Boundary Flow=
Boundary Location=                ,                ,        ,        ,                ,P01             ,                ,ERADR001C                       ,                                
Interval=1HOUR
Flow Hydrograph= 0 
Stage Hydrograph TW Check=0
DSS File=/IRREGULAR/TIMESERIES/FLOW/01Jan1990/IR-Decade/ERADR001C/
DSS Path=.\DSS Files\example-dss.dss
Use DSS=True
Use Fixed Start Time=False
Fixed Start Date/Time=,
Is Critical Boundary=False
Critical Boundary Flow=
Boundary Location=                ,                ,        ,        ,                ,P01             ,                ,ERADR001E                       ,                                
Interval=1HOUR
Flow Hydrograph= 0 
Stage Hydrograph TW Check=0
DSS File=/IRREGULAR/TIMESERIES/FLOW/01Jan1990/IR-Decade/ERADR001E/
DSS Path=.\DSS Files\example-dss.dss
Use DSS=True
Use Fixed Start Time=False
Fixed Start Date/Time=,
Is Critical Boundary=False
Critical Boundary Flow=
Boundary Location=                ,                ,        ,        ,                ,P01             ,                ,ERADR001I                       ,                                
Interval=1HOUR
Flow Hydrograph= 0 
Stage Hydrograph TW Check=0
DSS File=/IRREGULAR/TIMESERIES/FLOW/01Jan1990/IR-Decade/ERADR001I/
DSS Path=.\DSS Files\example-dss.dss
Use DSS=True
Use Fixed Start Time=False
Fixed Start Date/Time=,
Is Critical Boundary=False
Critical Boundary Flow=
Boundary Location=                ,                ,        ,        ,                ,P01             ,                ,ERAVS001                        ,                                
Interval=1HOUR
Flow Hydrograph= 0 
Stage Hydrograph TW Check=0
DSS File=/IRREGULAR/TIMESERIES/FLOW/01Jan1990/IR-Decade/ERAVS001/
DSS Path=.\DSS Files\example-dss.dss
Use DSS=True
Use Fixed Start Time=False
Fixed Start Date/Time=,
Is Critical Boundary=False
Critical Boundary Flow=
Boundary Location=                ,                ,        ,        ,                ,P01             ,                ,ERAVS002                        ,                                
Interval=1HOUR
Flow Hydrograph= 0 
Stage Hydrograph TW Check=0
DSS File=/IRREGULAR/TIMESERIES/FLOW/01Jan1990/IR-Decade/ERAVS002/
DSS Path=.\DSS Files\example-dss.dss
Use DSS=True
Use Fixed Start Time=False
Fixed Start Date/Time=,
Is Critical Boundary=False
Critical Boundary Flow=
Boundary Location=                ,                ,        ,        ,                ,P01             ,                ,ERAVS003                        ,                                
Interval=1HOUR
Flow Hydrograph= 0 
Stage Hydrograph TW Check=0
DSS File=/IRREGULAR/TIMESERIES/FLOW/01Jan1990/IR-Decade/ERAVS003/
DSS Path=.\DSS Files\example-dss.dss
Use DSS=True
Use Fixed Start Time=False
Fixed Start Date/Time=,
Is Critical Boundary=False
Critical Boundary Flow=
Boundary Location=                ,                ,        ,        ,                ,P01             ,                ,ERAVS004                        ,                                
Interval=1HOUR
Flow Hydrograph= 0 
Stage Hydrograph TW Check=0
DSS File=/IRREGULAR/TIMESERIES/FLOW/01Jan1990/IR-Decade/ERAVS004/
DSS Path=.\DSS Files\example-dss.dss
Use DSS=True
Use Fixed Start Time=False
Fixed Start Date/Time=,
Is Critical Boundary=False
Critical Boundary Flow=
Boundary Location=                ,                ,        ,        ,                ,P01             ,                ,ERAVS031                        ,                                
Interval=1HOUR
Flow Hydrograph= 0 
Stage Hydrograph TW Check=0
DSS File=/IRREGULAR/TIMESERIES/FLOW/01Jan1990/IR-Decade/ERAVS031/
DSS Path=.\DSS Files\example-dss.dss
Use DSS=True
Use Fixed Start Time=False
Fixed Start Date/Time=,
Is Critical Boundary=False
Critical Boundary Flow=
Boundary Location=                ,                ,        ,        ,                ,P01             ,                ,ERAVS034                        ,                                
Interval=1HOUR
Flow Hydrograph= 0 
Stage Hydrograph TW Check=0
DSS File=/IRREGULAR/TIMESERIES/FLOW/01Jan1990/IR-Decade/ERAVS034/
DSS Path=.\DSS Files\example-dss.dss
Use DSS=True
Use Fixed Start Time=False
Fixed Start Date/Time=,
Is Critical Boundary=False
Critical Boundary Flow=
Boundary Location=                ,                ,        ,        ,                ,P01             ,                ,ERAVS043                        ,                                
Interval=1HOUR
Flow Hydrograph= 0 
Stage Hydrograph TW Check=0
DSS File=/IRREGULAR/TIMESERIES/FLOW/01Jan1990/IR-Decade/ERAVS043/
DSS Path=.\DSS Files\example-dss.dss
Use DSS=True
Use Fixed Start Time=False
Fixed Start Date/Time=,
Is Critical Boundary=False
Critical Boundary Flow=
Boundary Location=                ,                ,        ,        ,                ,P01             ,                ,ERAVS045                        ,                                
Interval=1HOUR
Flow Hydrograph= 0 
Stage Hydrograph TW Check=0
DSS File=/IRREGULAR/TIMESERIES/FLOW/01Jan1990/IR-Decade/ERAVS045/
DSS Path=.\DSS Files\example-dss.dss
Use DSS=True
Use Fixed Start Time=False
Fixed Start Date/Time=,
Is Critical Boundary=False
Critical Boundary Flow=
Boundary Location=                ,                ,        ,        ,                ,P01             ,                ,ERAVS056                        ,                                
Interval=1HOUR
Flow Hydrograph= 0 
Stage Hydrograph TW Check=0
DSS File=/IRREGULAR/TIMESERIES/FLOW/01Jan1990/IR-Decade/ERAVS056/
DSS Path=.\DSS Files\example-dss.dss
Use DSS=True
Use Fixed Start Time=False
Fixed Start Date/Time=,
Is Critical Boundary=False
Critical Boundary Flow=
Boundary Location=                ,                ,        ,        ,                ,P01             ,                ,ERAVS063A                       ,                                
Interval=1HOUR
Flow Hydrograph= 0 
Stage Hydrograph TW Check=0
DSS File=/IRREGULAR/TIMESERIES/FLOW/01Jan1990/IR-Decade/ERAVS063A/
DSS Path=.\DSS Files\example-dss.dss
Use DSS=True
Use Fixed Start Time=False
Fixed Start Date/Time=,
Is Critical Boundary=False
Critical Boundary Flow=
Boundary Location=                ,                ,        ,        ,                ,P01             ,                ,ERAVS063K                       ,                                
Interval=1HOUR
Flow Hydrograph= 0 
Stage Hydrograph TW Check=0
DSS File=/IRREGULAR/TIMESERIES/FLOW/01Jan1990/IR-Decade/ERAVS063K/
DSS Path=.\DSS Files\example-dss.dss
Use DSS=True
Use Fixed Start Time=False
Fixed Start Date/Time=,
Is Critical Boundary=False
Critical Boundary Flow=
Boundary Location=                ,                ,        ,        ,                ,P01             ,                ,ERAVS063L                       ,                                
Interval=1HOUR
Flow Hydrograph= 0 
Stage Hydrograph TW Check=0
DSS File=/IRREGULAR/TIMESERIES/FLOW/01Jan1990/IR-Decade/ERAVS063L/
DSS Path=.\DSS Files\example-dss.dss
Use DSS=True
Use Fixed Start Time=False
Fixed Start Date/Time=,
Is Critical Boundary=False
Critical Boundary Flow=
Boundary Location=                ,                ,        ,        ,                ,P01             ,                ,ERAVS063M                       ,                                
Interval=1HOUR
Flow Hydrograph= 0 
Stage Hydrograph TW Check=0
DSS File=/IRREGULAR/TIMESERIES/FLOW/01Jan1990/IR-Decade/ERAVS063M/
DSS Path=.\DSS Files\example-dss.dss
Use DSS=True
Use Fixed Start Time=False
Fixed Start Date/Time=,
Is Critical Boundary=False
Critical Boundary Flow=
Boundary Location=                ,                ,        ,        ,                ,P01             ,                ,ERAVS063R                       ,                                
Interval=1HOUR
Flow Hydrograph= 0 
Stage Hydrograph TW Check=0
DSS File=/IRREGULAR/TIMESERIES/FLOW/01Jan1990/IR-Decade/ERAVS063R/
DSS Path=.\DSS Files\example-dss.dss
Use DSS=True
Use Fixed Start Time=False
Fixed Start Date/Time=,
Is Critical Boundary=False
Critical Boundary Flow=
Boundary Location=                ,                ,        ,        ,                ,P01             ,                ,ERAVS063T                       ,                                
Interval=1HOUR
Flow Hydrograph= 0 
Stage Hydrograph TW Check=0
DSS File=/IRREGULAR/TIMESERIES/FLOW/01Jan1990/IR-Decade/ERAVS063T/
DSS Path=.\DSS Files\example-dss.dss
Use DSS=True
Use Fixed Start Time=False
Fixed Start Date/Time=,
Is Critical Boundary=False
Critical Boundary Flow=
Boundary Location=                ,                ,        ,        ,                ,P01             ,                ,ERAYL001                        ,                                
Interval=1HOUR
Flow Hydrograph= 0 
Stage Hydrograph TW Check=0
DSS File=/IRREGULAR/TIMESERIES/FLOW/01Jan1990/IR-Decade/ERAYL001/
DSS Path=.\DSS Files\example-dss.dss
Use DSS=True
Use Fixed Start Time=False
Fixed Start Date/Time=,
Is Critical Boundary=False
Critical Boundary Flow=
Boundary Location=                ,                ,        ,        ,                ,P01             ,                ,ERAYL002                        ,                                
Interval=1HOUR
Flow Hydrograph= 0 
Stage Hydrograph TW Check=0
DSS File=/IRREGULAR/TIMESERIES/FLOW/01Jan1990/IR-Decade/ERAYL002/
DSS Path=.\DSS Files\example-dss.dss
Use DSS=True
Use Fixed Start Time=False
Fixed Start Date/Time=,
Is Critical Boundary=False
Critical Boundary Flow=
Boundary Location=                ,                ,        ,        ,                ,P01             ,                ,ERAYL012                        ,                                
Interval=1HOUR
Flow Hydrograph= 0 
Stage Hydrograph TW Check=0
DSS File=/IRREGULAR/TIMESERIES/FLOW/01Jan1990/IR-Decade/ERAYL012/
DSS Path=.\DSS Files\example-dss.dss
Use DSS=True
Use Fixed Start Time=False
Fixed Start Date/Time=,
Is Critical Boundary=False
Critical Boundary Flow=
Boundary Location=                ,                ,        ,        ,                ,P01             ,                ,ERAYL014                        ,                                
Interval=1HOUR
Flow Hydrograph= 0 
Stage Hydrograph TW Check=0
DSS File=/IRREGULAR/TIMESERIES/FLOW/01Jan1990/IR-Decade/ERAYL014/
DSS Path=.\DSS Files\example-dss.dss
Use DSS=True
Use Fixed Start Time=False
Fixed Start Date/Time=,
Is Critical Boundary=False
Critical Boundary Flow=
Boundary Location=                ,                ,        ,        ,                ,P01             ,                ,ERAYL015                        ,                                
Interval=1HOUR
Flow Hydrograph= 0 
Stage Hydrograph TW Check=0
DSS File=/IRREGULAR/TIMESERIES/FLOW/01Jan1990/IR-Decade/ERAYL015/
DSS Path=.\DSS Files\example-dss.dss
Use DSS=True
Use Fixed Start Time=False
Fixed Start Date/Time=,
Is Critical Boundary=False
Critical Boundary Flow=
Boundary Location=                ,                ,        ,        ,                ,P01             ,                ,ERAYL019                        ,                                
Interval=1HOUR
Flow Hydrograph= 0 
Stage Hydrograph TW Check=0
DSS File=/IRREGULAR/TIMESERIES/FLOW/01Jan1990/IR-Decade/ERAYL019/
DSS Path=.\DSS Files\example-dss.dss
Use DSS=True
Use Fixed Start Time=False
Fixed Start Date/Time=,
Is Critical Boundary=False
Critical Boundary Flow=
Boundary Location=                ,                ,        ,        ,                ,P01             ,                ,ERAYL020                        ,                                
Interval=1HOUR
Flow Hydrograph= 0 
Stage Hydrograph TW Check=0
DSS File=/IRREGULAR/TIMESERIES/FLOW/01Jan1990/IR-Decade/ERAYL020/
DSS Path=.\DSS Files\example-dss.dss
Use DSS=True
Use Fixed Start Time=False
Fixed Start Date/Time=,
Is Critical Boundary=False
Critical Boundary Flow=
Boundary Location=                ,                ,        ,        ,                ,P01             ,                ,ERAYL021                        ,                                
Interval=1HOUR
Flow Hydrograph= 0 
Stage Hydrograph TW Check=0
DSS File=/IRREGULAR/TIMESERIES/FLOW/01Jan1990/IR-Decade/ERAYL021/
DSS Path=.\DSS Files\example-dss.dss
Use DSS=True
Use Fixed Start Time=False
Fixed Start Date/Time=,
Is Critical Boundary=False
Critical Boundary Flow=
Boundary Location=                ,                ,        ,        ,                ,P01             ,                ,ERDPR002                        ,                                
Interval=1HOUR
Flow Hydrograph= 0 
Stage Hydrograph TW Check=0
DSS File=/IRREGULAR/TIMESERIES/FLOW/01Jan1990/IR-Decade/ERDPR002/
DSS Path=.\DSS Files\example-dss.dss
Use DSS=True
Use Fixed Start Time=False
Fixed Start Date/Time=,
Is Critical Boundary=False
Critical Boundary Flow=
Boundary Location=                ,                ,        ,        ,                ,P01             ,                ,ERDPR003                        ,                                
Interval=1HOUR
Flow Hydrograph= 0 
Stage Hydrograph TW Check=0
DSS File=/IRREGULAR/TIMESERIES/FLOW/01Jan1990/IR-Decade/ERDPR003/
DSS Path=.\DSS Files\example-dss.dss
Use DSS=True
Use Fixed Start Time=False
Fixed Start Date/Time=,
Is Critical Boundary=False
Critical Boundary Flow=
Boundary Location=                ,                ,        ,        ,                ,P01             ,                ,ERDPR004                        ,                                
Interval=1HOUR
Flow Hydrograph= 0 
Stage Hydrograph TW Check=0
DSS File=/IRREGULAR/TIMESERIES/FLOW/01Jan1990/IR-Decade/ERDPR004/
DSS Path=.\DSS Files\example-dss.dss
Use DSS=True
Use Fixed Start Time=False
Fixed Start Date/Time=,
Is Critical Boundary=False
Critical Boundary Flow=
Boundary Location=                ,                ,        ,        ,                ,P01             ,                ,ERDPR007                        ,                                
Interval=1HOUR
Flow Hydrograph= 0 
Stage Hydrograph TW Check=0
DSS File=/IRREGULAR/TIMESERIES/FLOW/01Jan1990/IR-Decade/ERDPR007/
DSS Path=.\DSS Files\example-dss.dss
Use DSS=True
Use Fixed Start Time=False
Fixed Start Date/Time=,
Is Critical Boundary=False
Critical Boundary Flow=
Boundary Location=                ,                ,        ,        ,                ,P01             ,                ,ERDPR013                        ,                                
Interval=1HOUR
Flow Hydrograph= 0 
Stage Hydrograph TW Check=0
DSS File=/IRREGULAR/TIMESERIES/FLOW/01Jan1990/IR-Decade/ERDPR013/
DSS Path=.\DSS Files\example-dss.dss
Use DSS=True
Use Fixed Start Time=False
Fixed Start Date/Time=,
Is Critical Boundary=False
Critical Boundary Flow=
Boundary Location=                ,                ,        ,        ,                ,P01             ,                ,ERDPR018                        ,                                
Interval=1HOUR
Flow Hydrograph= 0 
Stage Hydrograph TW Check=0
DSS File=/IRREGULAR/TIMESERIES/FLOW/01Jan1990/IR-Decade/ERDPR018/
DSS Path=.\DSS Files\example-dss.dss
Use DSS=True
Use Fixed Start Time=False
Fixed Start Date/Time=,
Is Critical Boundary=False
Critical Boundary Flow=
Boundary Location=                ,                ,        ,        ,                ,P01             ,                ,ERDPR019                        ,                                
Interval=1HOUR
Flow Hydrograph= 0 
Stage Hydrograph TW Check=0
DSS File=/IRREGULAR/TIMESERIES/FLOW/01Jan1990/IR-Decade/ERDPR019/
DSS Path=.\DSS Files\example-dss.dss
Use DSS=True
Use Fixed Start Time=False
Fixed Start Date/Time=,
Is Critical Boundary=False
Critical Boundary Flow=
Boundary Location=                ,                ,        ,        ,                ,P01             ,                ,ERDPR020                        ,                                
Interval=1HOUR
Flow Hydrograph= 0 
Stage Hydrograph TW Check=0
DSS File=/IRREGULAR/TIMESERIES/FLOW/01Jan1990/IR-Decade/ERDPR020/
DSS Path=.\DSS Files\example-dss.dss
Use DSS=True
Use Fixed Start Time=False
Fixed Start Date/Time=,
Is Critical Boundary=False
Critical Boundary Flow=
Boundary Location=                ,                ,        ,        ,                ,P01             ,                ,ERDPR026                        ,                                
Interval=1HOUR
Flow Hydrograph= 0 
Stage Hydrograph TW Check=0
DSS File=/IRREGULAR/TIMESERIES/FLOW/01Jan1990/IR-Decade/ERDPR026/
DSS Path=.\DSS Files\example-dss.dss
Use DSS=True
Use Fixed Start Time=False
Fixed Start Date/Time=,
Is Critical Boundary=False
Critical Boundary Flow=
Boundary Location=                ,                ,        ,        ,                ,P01             ,                ,ERDPR028                        ,                                
Interval=1HOUR
Flow Hydrograph= 0 
Stage Hydrograph TW Check=0
DSS File=/IRREGULAR/TIMESERIES/FLOW/01Jan1990/IR-Decade/ERDPR028/
DSS Path=.\DSS Files\example-dss.dss
Use DSS=True
Use Fixed Start Time=False
Fixed Start Date/Time=,
Is Critical Boundary=False
Critical Boundary Flow=
Boundary Location=                ,                ,        ,        ,                ,P01             ,                ,ERFNC002                        ,                                
Interval=1HOUR
Flow Hydrograph= 0 
Stage Hydrograph TW Check=0
DSS File=/IRREGULAR/TIMESERIES/FLOW/01Jan1990/IR-Decade/ERFNC002/
DSS Path=.\DSS Files\example-dss.dss
Use DSS=True
Use Fixed Start Time=False
Fixed Start Date/Time=,
Is Critical Boundary=False
Critical Boundary Flow=
Boundary Location=                ,                ,        ,        ,                ,P01             ,                ,ERFNC004                        ,                                
Interval=1HOUR
Flow Hydrograph= 0 
Stage Hydrograph TW Check=0
DSS File=/IRREGULAR/TIMESERIES/FLOW/01Jan1990/IR-Decade/ERFNC004/
DSS Path=.\DSS Files\example-dss.dss
Use DSS=True
Use Fixed Start Time=False
Fixed Start Date/Time=,
Is Critical Boundary=False
Critical Boundary Flow=
Boundary Location=                ,                ,        ,        ,                ,P01             ,                ,ERFNC006                        ,                                
Interval=1HOUR
Flow Hydrograph= 0 
Stage Hydrograph TW Check=0
DSS File=/IRREGULAR/TIMESERIES/FLOW/01Jan1990/IR-Decade/ERFNC006/
DSS Path=.\DSS Files\example-dss.dss
Use DSS=True
Use Fixed Start Time=False
Fixed Start Date/Time=,
Is Critical Boundary=False
Critical Boundary Flow=
Boundary Location=                ,                ,        ,        ,                ,P01             ,                ,ERFNC008                        ,                                
Interval=1HOUR
Flow Hydrograph= 0 
Stage Hydrograph TW Check=0
DSS File=/IRREGULAR/TIMESERIES/FLOW/01Jan1990/IR-Decade/ERFNC008/
DSS Path=.\DSS Files\example-dss.dss
Use DSS=True
Use Fixed Start Time=False
Fixed Start Date/Time=,
Is Critical Boundary=False
Critical Boundary Flow=
Boundary Location=                ,                ,        ,        ,                ,P01             ,                ,ERFNC010                        ,                                
Interval=1HOUR
Flow Hydrograph= 0 
Stage Hydrograph TW Check=0
DSS File=/IRREGULAR/TIMESERIES/FLOW/01Jan1990/IR-Decade/ERFNC010/
DSS Path=.\DSS Files\example-dss.dss
Use DSS=True
Use Fixed Start Time=False
Fixed Start Date/Time=,
Is Critical Boundary=False
Critical Boundary Flow=
Boundary Location=                ,                ,        ,        ,                ,P01             ,                ,ERFNC012                        ,                                
Interval=1HOUR
Flow Hydrograph= 0 
Stage Hydrograph TW Check=0
DSS File=/IRREGULAR/TIMESERIES/FLOW/01Jan1990/IR-Decade/ERFNC012/
DSS Path=.\DSS Files\example-dss.dss
Use DSS=True
Use Fixed Start Time=False
Fixed Start Date/Time=,
Is Critical Boundary=False
Critical Boundary Flow=
Boundary Location=                ,                ,        ,        ,                ,P01             ,                ,ERFNC014                        ,                                
Interval=1HOUR
Flow Hydrograph= 0 
Stage Hydrograph TW Check=0
DSS File=/IRREGULAR/TIMESERIES/FLOW/01Jan1990/IR-Decade/ERFNC014/
DSS Path=.\DSS Files\example-dss.dss
Use DSS=True
Use Fixed Start Time=False
Fixed Start Date/Time=,
Is Critical Boundary=False
Critical Boundary Flow=
Boundary Location=                ,                ,        ,        ,                ,P01             ,                ,ERFNC016                        ,                                
Interval=1HOUR
Flow Hydrograph= 0 
Stage Hydrograph TW Check=0
DSS File=/IRREGULAR/TIMESERIES/FLOW/01Jan1990/IR-Decade/ERFNC016/
DSS Path=.\DSS Files\example-dss.dss
Use DSS=True
Use Fixed Start Time=False
Fixed Start Date/Time=,
Is Critical Boundary=False
Critical Boundary Flow=
Boundary Location=                ,                ,        ,        ,                ,P01             ,                ,ERFNC018                        ,                                
Interval=1HOUR
Flow Hydrograph= 0 
Stage Hydrograph TW Check=0
DSS File=/IRREGULAR/TIMESERIES/FLOW/01Jan1990/IR-Decade/ERFNC018/
DSS Path=.\DSS Files\example-dss.dss
Use DSS=True
Use Fixed Start Time=False
Fixed Start Date/Time=,
Is Critical Boundary=False
Critical Boundary Flow=
Boundary Location=                ,                ,        ,        ,                ,P01             ,                ,ERFNC020                        ,                                
Interval=1HOUR
Flow Hydrograph= 0 
Stage Hydrograph TW Check=0
DSS File=/IRREGULAR/TIMESERIES/FLOW/01Jan1990/IR-Decade/ERFNC020/
DSS Path=.\DSS Files\example-dss.dss
Use DSS=True
Use Fixed Start Time=False
Fixed Start Date/Time=,
Is Critical Boundary=False
Critical Boundary Flow=
Boundary Location=                ,                ,        ,        ,                ,P01             ,                ,ERFNC022                        ,                                
Interval=1HOUR
Flow Hydrograph= 0 
Stage Hydrograph TW Check=0
DSS File=/IRREGULAR/TIMESERIES/FLOW/01Jan1990/IR-Decade/ERFNC022/
DSS Path=.\DSS Files\example-dss.dss
Use DSS=True
Use Fixed Start Time=False
Fixed Start Date/Time=,
Is Critical Boundary=False
Critical Boundary Flow=
Boundary Location=                ,                ,        ,        ,                ,P01             ,                ,ERFNC024                        ,                                
Interval=1HOUR
Flow Hydrograph= 0 
Stage Hydrograph TW Check=0
DSS File=/IRREGULAR/TIMESERIES/FLOW/01Jan1990/IR-Decade/ERFNC024/
DSS Path=.\DSS Files\example-dss.dss
Use DSS=True
Use Fixed Start Time=False
Fixed Start Date/Time=,
Is Critical Boundary=False
Critical Boundary Flow=
Boundary Location=                ,                ,        ,        ,                ,P01             ,                ,ERKLW001                        ,                                
Interval=1HOUR
Flow Hydrograph= 0 
Stage Hydrograph TW Check=0
DSS File=/IRREGULAR/TIMESERIES/FLOW/01Jan1990/IR-Decade/ERKLW001/
DSS Path=.\DSS Files\example-dss.dss
Use DSS=True
Use Fixed Start Time=False
Fixed Start Date/Time=,
Is Critical Boundary=False
Critical Boundary Flow=
Boundary Location=                ,                ,        ,        ,                ,P01             ,                ,ERKLW002                        ,                                
Interval=1HOUR
Flow Hydrograph= 0 
Stage Hydrograph TW Check=0
DSS File=/IRREGULAR/TIMESERIES/FLOW/01Jan1990/IR-Decade/ERKLW002/
DSS Path=.\DSS Files\example-dss.dss
Use DSS=True
Use Fixed Start Time=False
Fixed Start Date/Time=,
Is Critical Boundary=False
Critical Boundary Flow=
Boundary Location=                ,                ,        ,        ,                ,P01             ,                ,ERKLW006                        ,                                
Interval=1HOUR
Flow Hydrograph= 0 
Stage Hydrograph TW Check=0
DSS File=/IRREGULAR/TIMESERIES/FLOW/01Jan1990/IR-Decade/ERKLW006/
DSS Path=.\DSS Files\example-dss.dss
Use DSS=True
Use Fixed Start Time=False
Fixed Start Date/Time=,
Is Critical Boundary=False
Critical Boundary Flow=
Boundary Location=                ,                ,        ,        ,                ,P01             ,                ,ERKLW007                        ,                                
Interval=1HOUR
Flow Hydrograph= 0 
Stage Hydrograph TW Check=0
DSS File=/IRREGULAR/TIMESERIES/FLOW/01Jan1990/IR-Decade/ERKLW007/
DSS Path=.\DSS Files\example-dss.dss
Use DSS=True
Use Fixed Start Time=False
Fixed Start Date/Time=,
Is Critical Boundary=False
Critical Boundary Flow=
Boundary Location=                ,                ,        ,        ,                ,P01             ,                ,ERKLW010                        ,                                
Interval=1HOUR
Flow Hydrograph= 0 
Stage Hydrograph TW Check=0
DSS File=/IRREGULAR/TIMESERIES/FLOW/01Jan1990/IR-Decade/ERKLW010/
DSS Path=.\DSS Files\example-dss.dss
Use DSS=True
Use Fixed Start Time=False
Fixed Start Date/Time=,
Is Critical Boundary=False
Critical Boundary Flow=
Boundary Location=                ,                ,        ,        ,                ,P01             ,                ,ERKLW011                        ,                                
Interval=1HOUR
Flow Hydrograph= 0 
Stage Hydrograph TW Check=0
DSS File=/IRREGULAR/TIMESERIES/FLOW/01Jan1990/IR-Decade/ERKLW011/
DSS Path=.\DSS Files\example-dss.dss
Use DSS=True
Use Fixed Start Time=False
Fixed Start Date/Time=,
Is Critical Boundary=False
Critical Boundary Flow=
Boundary Location=                ,                ,        ,        ,                ,P01             ,                ,ERKLW014                        ,                                
Interval=1HOUR
Flow Hydrograph= 0 
Stage Hydrograph TW Check=0
DSS File=/IRREGULAR/TIMESERIES/FLOW/01Jan1990/IR-Decade/ERKLW014/
DSS Path=.\DSS Files\example-dss.dss
Use DSS=True
Use Fixed Start Time=False
Fixed Start Date/Time=,
Is Critical Boundary=False
Critical Boundary Flow=
Boundary Location=                ,                ,        ,        ,                ,P01             ,                ,ERKLW018                        ,                                
Interval=1HOUR
Flow Hydrograph= 0 
Stage Hydrograph TW Check=0
DSS File=/IRREGULAR/TIMESERIES/FLOW/01Jan1990/IR-Decade/ERKLW018/
DSS Path=.\DSS Files\example-dss.dss
Use DSS=True
Use Fixed Start Time=False
Fixed Start Date/Time=,
Is Critical Boundary=False
Critical Boundary Flow=
Boundary Location=                ,                ,        ,        ,                ,P01             ,                ,ERKLW019                        ,                                
Interval=1HOUR
Flow Hydrograph= 0 
Stage Hydrograph TW Check=0
DSS File=/IRREGULAR/TIMESERIES/FLOW/01Jan1990/IR-Decade/ERKLW019/
DSS Path=.\DSS Files\example-dss.dss
Use DSS=True
Use Fixed Start Time=False
Fixed Start Date/Time=,
Is Critical Boundary=False
Critical Boundary Flow=
Boundary Location=                ,                ,        ,        ,                ,P01             ,                ,ERKLW022                        ,                                
Interval=1HOUR
Flow Hydrograph= 0 
Stage Hydrograph TW Check=0
DSS File=/IRREGULAR/TIMESERIES/FLOW/01Jan1990/IR-Decade/ERKLW022/
DSS Path=.\DSS Files\example-dss.dss
Use DSS=True
Use Fixed Start Time=False
Fixed Start Date/Time=,
Is Critical Boundary=False