Flow Title=MalateClogged10
Program Version=6.31
Use Restart= 0 
Boundary Location=                ,                ,        ,        ,                ,malate_p01      ,                ,ABD0000                         ,                                
Interval=1HOUR
Flow Hydrograph= 0 
Stage Hydrograph TW Check=0
DSS File=.\DSS Files\MalateClogged10.dss
DSS Path=/IRREGULAR/TIMESERIES/FLOW/01Jan1990/IR-Decade/ABD0000/
Use DSS=True
Use Fixed Start Time=False
Fixed Start Date/Time=,
Is Critical Boundary=False
Critical Boundary Flow=
Boundary Location=                ,                ,        ,        ,                ,malate_p01      ,                ,ABD0088                         ,                                
Interval=1HOUR
Flow Hydrograph= 0 
Stage Hydrograph TW Check=0
DSS File=.\DSS Files\MalateClogged10.dss
DSS Path=/IRREGULAR/TIMESERIES/FLOW/01Jan1990/IR-Decade/ABD0088/
Use DSS=True
Use Fixed Start Time=False
Fixed Start Date/Time=,
Is Critical Boundary=False
Critical Boundary Flow=
Boundary Location=                ,                ,        ,        ,                ,malate_p01      ,                ,ABD0092                         ,                                
Interval=1HOUR
Flow Hydrograph= 0 
Stage Hydrograph TW Check=0
DSS File=.\DSS Files\MalateClogged10.dss
DSS Path=/IRREGULAR/TIMESERIES/FLOW/01Jan1990/IR-Decade/ABD0092/
Use DSS=True
Use Fixed Start Time=False
Fixed Start Date/Time=,
Is Critical Boundary=False
Critical Boundary Flow=
Boundary Location=                ,                ,        ,        ,                ,malate_p01      ,                ,ABD0132                         ,                                
Interval=1HOUR
Flow Hydrograph= 0 
Stage Hydrograph TW Check=0
DSS File=.\DSS Files\MalateClogged10.dss
DSS Path=/IRREGULAR/TIMESERIES/FLOW/01Jan1990/IR-Decade/ABD0132/
Use DSS=True
Use Fixed Start Time=False
Fixed Start Date/Time=,
Is Critical Boundary=False
Critical Boundary Flow=
Boundary Location=                ,                ,        ,        ,                ,malate_p01      ,                ,ABD0156                         ,                                
Interval=1HOUR
Flow Hydrograph= 0 
Stage Hydrograph TW Check=0
DSS File=.\DSS Files\MalateClogged10.dss
DSS Path=/IRREGULAR/TIMESERIES/FLOW/01Jan1990/IR-Decade/ABD0156/
Use DSS=True
Use Fixed Start Time=False
Fixed Start Date/Time=,
Is Critical Boundary=False
Critical Boundary Flow=
Boundary Location=                ,                ,        ,        ,                ,malate_p01      ,                ,ABD0163                         ,                                
Interval=1HOUR
Flow Hydrograph= 0 
Stage Hydrograph TW Check=0
DSS File=.\DSS Files\MalateClogged10.dss
DSS Path=/IRREGULAR/TIMESERIES/FLOW/01Jan1990/IR-Decade/ABD0163/
Use DSS=True
Use Fixed Start Time=False
Fixed Start Date/Time=,
Is Critical Boundary=False
Critical Boundary Flow=
Boundary Location=                ,                ,        ,        ,                ,malate_p01      ,                ,ABD0170                         ,                                
Interval=1HOUR
Flow Hydrograph= 0 
Stage Hydrograph TW Check=0
DSS File=.\DSS Files\MalateClogged10.dss
DSS Path=/IRREGULAR/TIMESERIES/FLOW/01Jan1990/IR-Decade/ABD0170/
Use DSS=True
Use Fixed Start Time=False
Fixed Start Date/Time=,
Is Critical Boundary=False
Critical Boundary Flow=
Boundary Location=                ,                ,        ,        ,                ,malate_p01      ,                ,ABD0240                         ,                                
Interval=1HOUR
Flow Hydrograph= 0 
Stage Hydrograph TW Check=0
DSS File=.\DSS Files\MalateClogged10.dss
DSS Path=/IRREGULAR/TIMESERIES/FLOW/01Jan1990/IR-Decade/ABD0240/
Use DSS=True
Use Fixed Start Time=False
Fixed Start Date/Time=,
Is Critical Boundary=False
Critical Boundary Flow=
Boundary Location=                ,                ,        ,        ,                ,malate_p01      ,                ,ABD0255                         ,                                
Interval=1HOUR
Flow Hydrograph= 0 
Stage Hydrograph TW Check=0
DSS File=.\DSS Files\MalateClogged10.dss
DSS Path=/IRREGULAR/TIMESERIES/FLOW/01Jan1990/IR-Decade/ABD0255/
Use DSS=True
Use Fixed Start Time=False
Fixed Start Date/Time=,
Is Critical Boundary=False
Critical Boundary Flow=
Boundary Location=                ,                ,        ,        ,                ,malate_p01      ,                ,ABD0259                         ,                                
Interval=1HOUR
Flow Hydrograph= 0 
Stage Hydrograph TW Check=0
DSS File=.\DSS Files\MalateClogged10.dss
DSS Path=/IRREGULAR/TIMESERIES/FLOW/01Jan1990/IR-Decade/ABD0259/
Use DSS=True
Use Fixed Start Time=False
Fixed Start Date/Time=,
Is Critical Boundary=False
Critical Boundary Flow=
Boundary Location=                ,                ,        ,        ,                ,malate_p01      ,                ,ABD0386                         ,                                
Interval=1HOUR
Flow Hydrograph= 0 
Stage Hydrograph TW Check=0
DSS File=.\DSS Files\MalateClogged10.dss
DSS Path=/IRREGULAR/TIMESERIES/FLOW/01Jan1990/IR-Decade/ABD0386/
Use DSS=True
Use Fixed Start Time=False
Fixed Start Date/Time=,
Is Critical Boundary=False
Critical Boundary Flow=
Boundary Location=                ,                ,        ,        ,                ,malate_p01      ,                ,ABD0510                         ,                                
Interval=1HOUR
Flow Hydrograph= 0 
Stage Hydrograph TW Check=0
DSS File=.\DSS Files\MalateClogged10.dss
DSS Path=/IRREGULAR/TIMESERIES/FLOW/01Jan1990/IR-Decade/ABD0510/
Use DSS=True
Use Fixed Start Time=False
Fixed Start Date/Time=,
Is Critical Boundary=False
Critical Boundary Flow=
Boundary Location=                ,                ,        ,        ,                ,malate_p01      ,                ,ABD0623                         ,                                
Interval=1HOUR
Flow Hydrograph= 0 
Stage Hydrograph TW Check=0
DSS File=.\DSS Files\MalateClogged10.dss
DSS Path=/IRREGULAR/TIMESERIES/FLOW/01Jan1990/IR-Decade/ABD0623/
Use DSS=True
Use Fixed Start Time=False
Fixed Start Date/Time=,
Is Critical Boundary=False
Critical Boundary Flow=
Boundary Location=                ,                ,        ,        ,                ,malate_p01      ,                ,ABD0652                         ,                                
Interval=1HOUR
Flow Hydrograph= 0 
Stage Hydrograph TW Check=0
DSS File=.\DSS Files\MalateClogged10.dss
DSS Path=/IRREGULAR/TIMESERIES/FLOW/01Jan1990/IR-Decade/ABD0652/
Use DSS=True
Use Fixed Start Time=False
Fixed Start Date/Time=,
Is Critical Boundary=False
Critical Boundary Flow=
Boundary Location=                ,                ,        ,        ,                ,malate_p01      ,                ,ABD0657                         ,                                
Interval=1HOUR
Flow Hydrograph= 0 
Stage Hydrograph TW Check=0
DSS File=.\DSS Files\MalateClogged10.dss
DSS Path=/IRREGULAR/TIMESERIES/FLOW/01Jan1990/IR-Decade/ABD0657/
Use DSS=True
Use Fixed Start Time=False
Fixed Start Date/Time=,
Is Critical Boundary=False
Critical Boundary Flow=
Boundary Location=                ,                ,        ,        ,                ,malate_p01      ,                ,ABD0686                         ,                                
Interval=1HOUR
Flow Hydrograph= 0 
Stage Hydrograph TW Check=0
DSS File=.\DSS Files\MalateClogged10.dss
DSS Path=/IRREGULAR/TIMESERIES/FLOW/01Jan1990/IR-Decade/ABD0686/
Use DSS=True
Use Fixed Start Time=False
Fixed Start Date/Time=,
Is Critical Boundary=False
Critical Boundary Flow=
Boundary Location=                ,                ,        ,        ,                ,malate_p01      ,                ,ABD0723                         ,                                
Interval=1HOUR
Flow Hydrograph= 0 
Stage Hydrograph TW Check=0
DSS File=.\DSS Files\MalateClogged10.dss
DSS Path=/IRREGULAR/TIMESERIES/FLOW/01Jan1990/IR-Decade/ABD0723/
Use DSS=True
Use Fixed Start Time=False
Fixed Start Date/Time=,
Is Critical Boundary=False
Critical Boundary Flow=
Boundary Location=                ,                ,        ,        ,                ,malate_p01      ,                ,ABD0778                         ,                                
Interval=1HOUR
Flow Hydrograph= 0 
Stage Hydrograph TW Check=0
DSS File=.\DSS Files\MalateClogged10.dss
DSS Path=/IRREGULAR/TIMESERIES/FLOW/01Jan1990/IR-Decade/ABD0778/
Use DSS=True
Use Fixed Start Time=False
Fixed Start Date/Time=,
Is Critical Boundary=False
Critical Boundary Flow=
Boundary Location=                ,                ,        ,        ,                ,malate_p01      ,                ,ABD0808                         ,                                
Interval=1HOUR
Flow Hydrograph= 0 
Stage Hydrograph TW Check=0
DSS File=.\DSS Files\MalateClogged10.dss
DSS Path=/IRREGULAR/TIMESERIES/FLOW/01Jan1990/IR-Decade/ABD0808/
Use DSS=True
Use Fixed Start Time=False
Fixed Start Date/Time=,
Is Critical Boundary=False
Critical Boundary Flow=
Boundary Location=                ,                ,        ,        ,                ,malate_p01      ,                ,ABD0826                         ,                                
Interval=1HOUR
Flow Hydrograph= 0 
Stage Hydrograph TW Check=0
DSS File=.\DSS Files\MalateClogged10.dss
DSS Path=/IRREGULAR/TIMESERIES/FLOW/01Jan1990/IR-Decade/ABD0826/
Use DSS=True
Use Fixed Start Time=False
Fixed Start Date/Time=,
Is Critical Boundary=False
Critical Boundary Flow=
Boundary Location=                ,                ,        ,        ,                ,malate_p01      ,                ,ABD0845                         ,                                
Interval=1HOUR
Flow Hydrograph= 0 
Stage Hydrograph TW Check=0
DSS File=.\DSS Files\MalateClogged10.dss
DSS Path=/IRREGULAR/TIMESERIES/FLOW/01Jan1990/IR-Decade/ABD0845/
Use DSS=True
Use Fixed Start Time=False
Fixed Start Date/Time=,
Is Critical Boundary=False
Critical Boundary Flow=
Boundary Location=                ,                ,        ,        ,                ,malate_p01      ,                ,ABD0883                         ,                                
Interval=1HOUR
Flow Hydrograph= 0 
Stage Hydrograph TW Check=0
DSS File=.\DSS Files\MalateClogged10.dss
DSS Path=/IRREGULAR/TIMESERIES/FLOW/01Jan1990/IR-Decade/ABD0883/
Use DSS=True
Use Fixed Start Time=False
Fixed Start Date/Time=,
Is Critical Boundary=False
Critical Boundary Flow=
Boundary Location=                ,                ,        ,        ,                ,malate_p01      ,                ,ABD0889                         ,                                
Interval=1HOUR
Flow Hydrograph= 0 
Stage Hydrograph TW Check=0
DSS File=.\DSS Files\MalateClogged10.dss
DSS Path=/IRREGULAR/TIMESERIES/FLOW/01Jan1990/IR-Decade/ABD0889/
Use DSS=True
Use Fixed Start Time=False
Fixed Start Date/Time=,
Is Critical Boundary=False
Critical Boundary Flow=
Boundary Location=                ,                ,        ,        ,                ,malate_p01      ,                ,ABD0936                         ,                                
Interval=1HOUR
Flow Hydrograph= 0 
Stage Hydrograph TW Check=0
DSS File=.\DSS Files\MalateClogged10.dss
DSS Path=/IRREGULAR/TIMESERIES/FLOW/01Jan1990/IR-Decade/ABD0936/
Use DSS=True
Use Fixed Start Time=False
Fixed Start Date/Time=,
Is Critical Boundary=False
Critical Boundary Flow=
Boundary Location=                ,                ,        ,        ,                ,malate_p01      ,                ,ABD0942                         ,                                
Interval=1HOUR
Flow Hydrograph= 0 
Stage Hydrograph TW Check=0
DSS File=.\DSS Files\MalateClogged10.dss
DSS Path=/IRREGULAR/TIMESERIES/FLOW/01Jan1990/IR-Decade/ABD0942/
Use DSS=True
Use Fixed Start Time=False
Fixed Start Date/Time=,
Is Critical Boundary=False
Critical Boundary Flow=
Boundary Location=                ,                ,        ,        ,                ,malate_p01      ,                ,ABD1017                         ,                                
Interval=1HOUR
Flow Hydrograph= 0 
Stage Hydrograph TW Check=0
DSS File=.\DSS Files\MalateClogged10.dss
DSS Path=/IRREGULAR/TIMESERIES/FLOW/01Jan1990/IR-Decade/ABD1017/
Use DSS=True
Use Fixed Start Time=False
Fixed Start Date/Time=,
Is Critical Boundary=False
Critical Boundary Flow=
Boundary Location=                ,                ,        ,        ,                ,malate_p01      ,                ,ABD1045                         ,                                
Interval=1HOUR
Flow Hydrograph= 0 
Stage Hydrograph TW Check=0
DSS File=.\DSS Files\MalateClogged10.dss
DSS Path=/IRREGULAR/TIMESERIES/FLOW/01Jan1990/IR-Decade/ABD1045/
Use DSS=True
Use Fixed Start Time=False
Fixed Start Date/Time=,
Is Critical Boundary=False
Critical Boundary Flow=
Boundary Location=                ,                ,        ,        ,                ,malate_p01      ,                ,ABD1064                         ,                                
Interval=1HOUR
Flow Hydrograph= 0 
Stage Hydrograph TW Check=0
DSS File=.\DSS Files\MalateClogged10.dss
DSS Path=/IRREGULAR/TIMESERIES/FLOW/01Jan1990/IR-Decade/ABD1064/
Use DSS=True
Use Fixed Start Time=False
Fixed Start Date/Time=,
Is Critical Boundary=False
Critical Boundary Flow=
Boundary Location=                ,                ,        ,        ,                ,malate_p01      ,                ,ABD1083                         ,                                
Interval=1HOUR
Flow Hydrograph= 0 
Stage Hydrograph TW Check=0
DSS File=.\DSS Files\MalateClogged10.dss
DSS Path=/IRREGULAR/TIMESERIES/FLOW/01Jan1990/IR-Decade/ABD1083/
Use DSS=True
Use Fixed Start Time=False
Fixed Start Date/Time=,
Is Critical Boundary=False
Critical Boundary Flow=
Boundary Location=                ,                ,        ,        ,                ,malate_p01      ,                ,ABD1163                         ,                                
Interval=1HOUR
Flow Hydrograph= 0 
Stage Hydrograph TW Check=0
DSS File=.\DSS Files\MalateClogged10.dss
DSS Path=/IRREGULAR/TIMESERIES/FLOW/01Jan1990/IR-Decade/ABD1163/
Use DSS=True
Use Fixed Start Time=False
Fixed Start Date/Time=,
Is Critical Boundary=False
Critical Boundary Flow=
Boundary Location=                ,                ,        ,        ,                ,malate_p01      ,                ,ABD1204                         ,                                
Interval=1HOUR
Flow Hydrograph= 0 
Stage Hydrograph TW Check=0
DSS File=.\DSS Files\MalateClogged10.dss
DSS Path=/IRREGULAR/TIMESERIES/FLOW/01Jan1990/IR-Decade/ABD1204/
Use DSS=True
Use Fixed Start Time=False
Fixed Start Date/Time=,
Is Critical Boundary=False
Critical Boundary Flow=
Boundary Location=                ,                ,        ,        ,                ,malate_p01      ,                ,ERRXS068                        ,                                
Interval=1HOUR
Flow Hydrograph= 0 
Stage Hydrograph TW Check=0
DSS File=.\DSS Files\MalateClogged10.dss
DSS Path=/IRREGULAR/TIMESERIES/FLOW/01Jan1990/IR-Decade/ERRXS068/
Use DSS=True
Use Fixed Start Time=False
Fixed Start Date/Time=,
Is Critical Boundary=False
Critical Boundary Flow=
Boundary Location=                ,                ,        ,        ,                ,malate_p01      ,                ,ERRXS072                        ,                                
Interval=1HOUR
Flow Hydrograph= 0 
Stage Hydrograph TW Check=0
DSS File=.\DSS Files\MalateClogged10.dss
DSS Path=/IRREGULAR/TIMESERIES/FLOW/01Jan1990/IR-Decade/ERRXS072/
Use DSS=True
Use Fixed Start Time=False
Fixed Start Date/Time=,
Is Critical Boundary=False
Critical Boundary Flow=
Boundary Location=                ,                ,        ,        ,                ,malate_p01      ,                ,ERRXS074                        ,                                
Interval=1HOUR
Flow Hydrograph= 0 
Stage Hydrograph TW Check=0
DSS File=.\DSS Files\MalateClogged10.dss
DSS Path=/IRREGULAR/TIMESERIES/FLOW/01Jan1990/IR-Decade/ERRXS074/
Use DSS=True
Use Fixed Start Time=False
Fixed Start Date/Time=,
Is Critical Boundary=False
Critical Boundary Flow=
Boundary Location=                ,                ,        ,        ,                ,malate_p01      ,                ,ML01B001                        ,                                
Interval=1HOUR
Flow Hydrograph= 0 
Stage Hydrograph TW Check=0
DSS File=.\DSS Files\MalateClogged10.dss
DSS Path=/IRREGULAR/TIMESERIES/FLOW/01Jan1990/IR-Decade/ML01B001/
Use DSS=True
Use Fixed Start Time=False
Fixed Start Date/Time=,
Is Critical Boundary=False
Critical Boundary Flow=
Boundary Location=                ,                ,        ,        ,                ,malate_p01      ,                ,ML01B002                        ,                                
Interval=1HOUR
Flow Hydrograph= 0 
Stage Hydrograph TW Check=0
DSS File=.\DSS Files\MalateClogged10.dss
DSS Path=/IRREGULAR/TIMESERIES/FLOW/01Jan1990/IR-Decade/ML01B002/
Use DSS=True
Use Fixed Start Time=False
Fixed Start Date/Time=,
Is Critical Boundary=False
Critical Boundary Flow=
Boundary Location=                ,                ,        ,        ,                ,malate_p01      ,                ,ML01B003                        ,                                
Interval=1HOUR
Flow Hydrograph= 0 
Stage Hydrograph TW Check=0
DSS File=.\DSS Files\MalateClogged10.dss
DSS Path=/IRREGULAR/TIMESERIES/FLOW/01Jan1990/IR-Decade/ML01B003/
Use DSS=True
Use Fixed Start Time=False
Fixed Start Date/Time=,
Is Critical Boundary=False
Critical Boundary Flow=
Boundary Location=                ,                ,        ,        ,                ,malate_p01      ,                ,MLADR041                        ,                                
Interval=1HOUR
Flow Hydrograph= 0 
Stage Hydrograph TW Check=0
DSS File=.\DSS Files\MalateClogged10.dss
DSS Path=/IRREGULAR/TIMESERIES/FLOW/01Jan1990/IR-Decade/MLADR041/
Use DSS=True
Use Fixed Start Time=False
Fixed Start Date/Time=,
Is Critical Boundary=False
Critical Boundary Flow=
Boundary Location=                ,                ,        ,        ,                ,malate_p01      ,                ,MLADR053                        ,                                
Interval=1HOUR
Flow Hydrograph= 0 
Stage Hydrograph TW Check=0
DSS File=.\DSS Files\MalateClogged10.dss
DSS Path=/IRREGULAR/TIMESERIES/FLOW/01Jan1990/IR-Decade/MLADR053/
Use DSS=True
Use Fixed Start Time=False
Fixed Start Date/Time=,
Is Critical Boundary=False
Critical Boundary Flow=
Boundary Location=                ,                ,        ,        ,                ,malate_p01      ,                ,MLADR054                        ,                                
Interval=1HOUR
Flow Hydrograph= 0 
Stage Hydrograph TW Check=0
DSS File=.\DSS Files\MalateClogged10.dss
DSS Path=/IRREGULAR/TIMESERIES/FLOW/01Jan1990/IR-Decade/MLADR054/
Use DSS=True
Use Fixed Start Time=False
Fixed Start Date/Time=,
Is Critical Boundary=False
Critical Boundary Flow=
Boundary Location=                ,                ,        ,        ,                ,malate_p01      ,                ,MLADR055                        ,                                
Interval=1HOUR
Flow Hydrograph= 0 
Stage Hydrograph TW Check=0
DSS File=.\DSS Files\MalateClogged10.dss
DSS Path=/IRREGULAR/TIMESERIES/FLOW/01Jan1990/IR-Decade/MLADR055/
Use DSS=True
Use Fixed Start Time=False
Fixed Start Date/Time=,
Is Critical Boundary=False
Critical Boundary Flow=
Boundary Location=                ,                ,        ,        ,                ,malate_p01      ,                ,MLADR085                        ,                                
Interval=1HOUR
Flow Hydrograph= 0 
Stage Hydrograph TW Check=0
DSS File=.\DSS Files\MalateClogged10.dss
DSS Path=/IRREGULAR/TIMESERIES/FLOW/01Jan1990/IR-Decade/MLADR085/
Use DSS=True
Use Fixed Start Time=False
Fixed Start Date/Time=,
Is Critical Boundary=False
Critical Boundary Flow=
Boundary Location=                ,                ,        ,        ,                ,malate_p01      ,                ,MLADR087                        ,                                
Interval=1HOUR
Flow Hydrograph= 0 
Stage Hydrograph TW Check=0
DSS File=.\DSS Files\MalateClogged10.dss
DSS Path=/IRREGULAR/TIMESERIES/FLOW/01Jan1990/IR-Decade/MLADR087/
Use DSS=True
Use Fixed Start Time=False
Fixed Start Date/Time=,
Is Critical Boundary=False
Critical Boundary Flow=
Boundary Location=                ,                ,        ,        ,                ,malate_p01      ,                ,MLADR089                        ,                                
Interval=1HOUR
Flow Hydrograph= 0 
Stage Hydrograph TW Check=0
DSS File=.\DSS Files\MalateClogged10.dss
DSS Path=/IRREGULAR/TIMESERIES/FLOW/01Jan1990/IR-Decade/MLADR089/
Use DSS=True
Use Fixed Start Time=False
Fixed Start Date/Time=,
Is Critical Boundary=False
Critical Boundary Flow=
Boundary Location=                ,                ,        ,        ,                ,malate_p01      ,                ,MLADR096                        ,                                
Interval=1HOUR
Flow Hydrograph= 0 
Stage Hydrograph TW Check=0
DSS File=.\DSS Files\MalateClogged10.dss
DSS Path=/IRREGULAR/TIMESERIES/FLOW/01Jan1990/IR-Decade/MLADR096/
Use DSS=True
Use Fixed Start Time=False
Fixed Start Date/Time=,
Is Critical Boundary=False
Critical Boundary Flow=
Boundary Location=                ,                ,        ,        ,                ,malate_p01      ,                ,MLADR097                        ,                                
Interval=1HOUR
Flow Hydrograph= 0 
Stage Hydrograph TW Check=0
DSS File=.\DSS Files\MalateClogged10.dss
DSS Path=/IRREGULAR/TIMESERIES/FLOW/01Jan1990/IR-Decade/MLADR097/
Use DSS=True
Use Fixed Start Time=False
Fixed Start Date/Time=,
Is Critical Boundary=False
Critical Boundary Flow=
Boundary Location=                ,                ,        ,        ,                ,malate_p01      ,                ,MLADR098                        ,                                
Interval=1HOUR
Flow Hydrograph= 0 
Stage Hydrograph TW Check=0
DSS File=.\DSS Files\MalateClogged10.dss
DSS Path=/IRREGULAR/TIMESERIES/FLOW/01Jan1990/IR-Decade/MLADR098/
Use DSS=True
Use Fixed Start Time=False
Fixed Start Date/Time=,
Is Critical Boundary=False
Critical Boundary Flow=
Boundary Location=                ,                ,        ,        ,                ,malate_p01      ,                ,MLALN035                        ,                                
Interval=1HOUR
Flow Hydrograph= 0 
Stage Hydrograph TW Check=0
DSS File=.\DSS Files\MalateClogged10.dss
DSS Path=/IRREGULAR/TIMESERIES/FLOW/01Jan1990/IR-Decade/MLALN035/
Use DSS=True
Use Fixed Start Time=False
Fixed Start Date/Time=,
Is Critical Boundary=False
Critical Boundary Flow=
Boundary Location=                ,                ,        ,        ,                ,malate_p01      ,                ,MLALN036                        ,                                
Interval=1HOUR
Flow Hydrograph= 0 
Stage Hydrograph TW Check=0
DSS File=.\DSS Files\MalateClogged10.dss
DSS Path=/IRREGULAR/TIMESERIES/FLOW/01Jan1990/IR-Decade/MLALN036/
Use DSS=True
Use Fixed Start Time=False
Fixed Start Date/Time=,
Is Critical Boundary=False
Critical Boundary Flow=
Boundary Location=                ,                ,        ,        ,                ,malate_p01      ,                ,MLALN040                        ,                                
Interval=1HOUR
Flow Hydrograph= 0 
Stage Hydrograph TW Check=0
DSS File=.\DSS Files\MalateClogged10.dss
DSS Path=/IRREGULAR/TIMESERIES/FLOW/01Jan1990/IR-Decade/MLALN040/
Use DSS=True
Use Fixed Start Time=False
Fixed Start Date/Time=,
Is Critical Boundary=False
Critical Boundary Flow=
Boundary Location=                ,                ,        ,        ,                ,malate_p01      ,                ,MLALN044                        ,                                
Interval=1HOUR
Flow Hydrograph= 0 
Stage Hydrograph TW Check=0
DSS File=.\DSS Files\MalateClogged10.dss
DSS Path=/IRREGULAR/TIMESERIES/FLOW/01Jan1990/IR-Decade/MLALN044/
Use DSS=True
Use Fixed Start Time=False
Fixed Start Date/Time=,
Is Critical Boundary=False
Critical Boundary Flow=
Boundary Location=                ,                ,        ,        ,                ,malate_p01      ,                ,MLALN045                        ,                                
Interval=1HOUR
Flow Hydrograph= 0 
Stage Hydrograph TW Check=0
DSS File=.\DSS Files\MalateClogged10.dss
DSS Path=/IRREGULAR/TIMESERIES/FLOW/01Jan1990/IR-Decade/MLALN045/
Use DSS=True
Use Fixed Start Time=False
Fixed Start Date/Time=,
Is Critical Boundary=False
Critical Boundary Flow=
Boundary Location=                ,                ,        ,        ,                ,malate_p01      ,                ,MLGMS037                        ,                                
Interval=1HOUR
Flow Hydrograph= 0 
Stage Hydrograph TW Check=0
DSS File=.\DSS Files\MalateClogged10.dss
DSS Path=/IRREGULAR/TIMESERIES/FLOW/01Jan1990/IR-Decade/MLGMS037/
Use DSS=True
Use Fixed Start Time=False
Fixed Start Date/Time=,
Is Critical Boundary=False
Critical Boundary Flow=
Boundary Location=                ,                ,        ,        ,                ,malate_p01      ,                ,MLGMS040                        ,                                
Interval=1HOUR
Flow Hydrograph= 0 
Stage Hydrograph TW Check=0
DSS File=.\DSS Files\MalateClogged10.dss
DSS Path=/IRREGULAR/TIMESERIES/FLOW/01Jan1990/IR-Decade/MLGMS040/
Use DSS=True
Use Fixed Start Time=False
Fixed Start Date/Time=,
Is Critical Boundary=False
Critical Boundary Flow=
Boundary Location=                ,                ,        ,        ,                ,malate_p01      ,                ,MLGMS044                        ,                                
Interval=1HOUR
Flow Hydrograph= 0 
Stage Hydrograph TW Check=0
DSS File=.\DSS Files\MalateClogged10.dss
DSS Path=/IRREGULAR/TIMESERIES/FLOW/01Jan1990/IR-Decade/MLGMS044/
Use DSS=True
Use Fixed Start Time=False
Fixed Start Date/Time=,
Is Critical Boundary=False
Critical Boundary Flow=
Boundary Location=                ,                ,        ,        ,                ,malate_p01      ,                ,MLGMS045                        ,                                
Interval=1HOUR
Flow Hydrograph= 0 
Stage Hydrograph TW Check=0
DSS File=.\DSS Files\MalateClogged10.dss
DSS Path=/IRREGULAR/TIMESERIES/FLOW/01Jan1990/IR-Decade/MLGMS045/
Use DSS=True
Use Fixed Start Time=False
Fixed Start Date/Time=,
Is Critical Boundary=False
Critical Boundary Flow=
Boundary Location=                ,                ,        ,        ,                ,malate_p01      ,                ,MLGMS048                        ,                                
Interval=1HOUR
Flow Hydrograph= 0 
Stage Hydrograph TW Check=0
DSS File=.\DSS Files\MalateClogged10.dss
DSS Path=/IRREGULAR/TIMESERIES/FLOW/01Jan1990/IR-Decade/MLGMS048/
Use DSS=True
Use Fixed Start Time=False
Fixed Start Date/Time=,
Is Critical Boundary=False
Critical Boundary Flow=
Boundary Location=                ,                ,        ,        ,                ,malate_p01      ,                ,MLGMS054                        ,                                
Interval=1HOUR
Flow Hydrograph= 0 
Stage Hydrograph TW Check=0
DSS File=.\DSS Files\MalateClogged10.dss
DSS Path=/IRREGULAR/TIMESERIES/FLOW/01Jan1990/IR-Decade/MLGMS054/
Use DSS=True
Use Fixed Start Time=False
Fixed Start Date/Time=,
Is Critical Boundary=False
Critical Boundary Flow=
Boundary Location=                ,                ,        ,        ,                ,malate_p01      ,                ,MLGMS059                        ,                                
Interval=1HOUR
Flow Hydrograph= 0 
Stage Hydrograph TW Check=0
DSS File=.\DSS Files\MalateClogged10.dss
DSS Path=/IRREGULAR/TIMESERIES/FLOW/01Jan1990/IR-Decade/MLGMS059/
Use DSS=True
Use Fixed Start Time=False
Fixed Start Date/Time=,
Is Critical Boundary=False
Critical Boundary Flow=
Boundary Location=                ,                ,        ,        ,                ,malate_p01      ,                ,MLGMS060                        ,                                
Interval=1HOUR
Flow Hydrograph= 0 
Stage Hydrograph TW Check=0
DSS File=.\DSS Files\MalateClogged10.dss
DSS Path=/IRREGULAR/TIMESERIES/FLOW/01Jan1990/IR-Decade/MLGMS060/
Use DSS=True
Use Fixed Start Time=False
Fixed Start Date/Time=,
Is Critical Boundary=False
Critical Boundary Flow=
Boundary Location=                ,                ,        ,        ,                ,malate_p01      ,                ,MLGMS067                        ,                                
Interval=1HOUR
Flow Hydrograph= 0 
Stage Hydrograph TW Check=0
DSS File=.\DSS Files\MalateClogged10.dss
DSS Path=/IRREGULAR/TIMESERIES/FLOW/01Jan1990/IR-Decade/MLGMS067/
Use DSS=True
Use Fixed Start Time=False
Fixed Start Date/Time=,
Is Critical Boundary=False
Critical Boundary Flow=
Boundary Location=                ,                ,        ,        ,                ,malate_p01      ,                ,MLJNS001                        ,                                
Interval=1HOUR
Flow Hydrograph= 0 
Stage Hydrograph TW Check=0
DSS File=.\DSS Files\MalateClogged10.dss
DSS Path=/IRREGULAR/TIMESERIES/FLOW/01Jan1990/IR-Decade/MLJNS001/
Use DSS=True
Use Fixed Start Time=False
Fixed Start Date/Time=,
Is Critical Boundary=False
Critical Boundary Flow=
Boundary Location=                ,                ,        ,        ,                ,malate_p01      ,                ,MLJNS007                        ,                                
Interval=1HOUR
Flow Hydrograph= 0 
Stage Hydrograph TW Check=0
DSS File=.\DSS Files\MalateClogged10.dss
DSS Path=/IRREGULAR/TIMESERIES/FLOW/01Jan1990/IR-Decade/MLJNS007/
Use DSS=True
Use Fixed Start Time=False
Fixed Start Date/Time=,
Is Critical Boundary=False
Critical Boundary Flow=
Boundary Location=                ,                ,        ,        ,                ,malate_p01      ,                ,MLJNS008                        ,                                
Interval=1HOUR
Flow Hydrograph= 0 